   40
Geometry Step: 496
   Cs      6.27645798      3.17985021      3.45060331      0.28866180
   Cs      0.36082632      2.65111047      8.80242939      0.28997838
   Cs      3.17985001     12.14413401      3.45060350      0.28866179
   Cs      2.65111066      6.22850237      8.80242936      0.28997838
   Cs      9.04752610      6.27645824      3.45060336      0.28866179
   Cs      8.51878658      0.36082630      8.80242917      0.28997838
   Cs     12.14413425      9.04752592      3.45060351      0.28866179
   Cs      6.22850238      8.51878674      8.80242915      0.28997838
   Pb      0.58596612      0.20080104      0.27246101      3.67433735
   Pb     -0.25142872      0.26286191      5.72813122      3.67243707
   Pb      0.20080123      6.45364200      0.27246102      3.67433734
   Pb      0.26286207      5.61624719      5.72813127      3.67243706
   Pb      6.06847717      0.58596624      0.27246088      3.67433734
   Pb      6.13053798     -0.25142867      5.72813106      3.67243707
   Pb      6.45364208      6.06847734      0.27246091      3.67433733
   Pb      5.61624727      6.13053811      5.72813111      3.67243707
   Br     12.23951189      2.58565034     -0.11243971      7.36466381
   Br     12.66184112      2.31405740      5.99582824      7.34594480
   Br      0.18020125      8.82178340     12.30074949      7.34616136
   Br     -1.07965783      7.60947123      5.54999613      7.32649293
   Br      6.04787711      2.95410765     12.30074920      7.34616137
   Br      4.78801826      1.74179547      5.54999603      7.32649292
   Br      6.37183585      8.45332664     -0.11243991      7.36466382
   Br      6.79416530      8.18173348      5.99582815      7.34594480
   Br      0.27075773     12.00521041      2.66136501      7.33382482
   Br     11.27839083     -0.00619807      8.15995647      7.35749769
   Br     12.00521054      6.13843347      2.66136502      7.33382484
   Br     -0.00619782      5.41071470      8.15995654      7.35749769
   Br      6.13753445      0.27075789      2.66136490      7.33382483
   Br      5.86147790     11.27839089      8.15995630      7.35749769
   Br      6.13843362      6.13753459      2.66136490      7.33382482
   Br      5.41071475      5.86147815      8.15995639      7.35749770
   Br      2.95410757      0.18020095     12.30074937      7.34616138
   Br      1.74179538     -1.07965782      5.54999615      7.32649291
   Br      2.58565051      6.37183573     -0.11243971      7.36466381
   Br      2.31405739      6.79416528      5.99582825      7.34594480
   Br      8.45332643     12.23951200     -0.11243991      7.36466381
   Br      8.18173350     12.66184109      5.99582815      7.34594480
   Br      8.82178352      6.04787742     12.30074933      7.34616138
   Br      7.60947128      4.78801829      5.54999600      7.32649290
